Circuit: * E:\GitHub\LIBRARY-ElectronFlow\ElectronMatrix\test\Draft2.asc

Direct Newton iteration for .op point succeeded.

Date: Wed Oct 09 23:15:34 2024
Total elapsed time: 0.025 seconds.

tnom = 27
temp = 27
method = trap
totiter = 6
traniter = 0
tranpoints = 0
accept = 0
rejected = 0
matrix size = 5
fillins = 0
solver = Normal
Matrix Compiler1: 186 bytes object code size
Matrix Compiler2: 309 bytes object code size
