Circuit: * E:\GitHub\LIBRARY-TickedElectricSimulation\ElectronFlow-Theory-TestCircuit.asc

Direct Newton iteration for .op point succeeded.

Date: Wed Sep 25 18:24:31 2024
Total elapsed time: 0.640 seconds.

tnom = 27
temp = 27
method = modified trap
totiter = 80033
traniter = 80030
tranpoints = 40016
accept = 24018
rejected = 15998
matrix size = 8
fillins = 0
solver = Normal
Matrix Compiler1:      26 opcodes  0.1/[0.1]/0.1
Matrix Compiler2: off  [0.1]/0.1/0.1

