Circuit: * E:\GitHub\LIBRARY-ElectronFlow\Dokumente\limiter1.asc

Direct Newton iteration for .op point succeeded.

Date: Thu Oct 10 12:58:30 2024
Total elapsed time: 0.027 seconds.

tnom = 27
temp = 27
method = trap
totiter = 6
traniter = 0
tranpoints = 0
accept = 0
rejected = 0
matrix size = 5
fillins = 0
solver = Normal
Matrix Compiler1: 186 bytes object code size
Matrix Compiler2: 309 bytes object code size
